CRYSTAL
PRIMVEC
10.267148 0.000000 0.000000
0.000000 10.267148 0.000000
0.000000 0.000000 36.961733
CONVVEC
10.267148 0.000000 0.000000
0.000000 10.267148 0.000000
0.000000 0.000000 36.961733
PRIMCOORD
16 1
14 -0.022226 -0.022226 -0.468800
14 -0.021246 5.112025 5.126222
14 5.112025 -0.021246 5.126222
14 5.111479 5.111479 0.668650
14 2.292695 2.292695 2.559098
14 2.625911 7.598463 7.697045
14 7.598462 2.625911 7.697045
14 7.930139 7.930139 2.559647
14 -0.021951 -0.021951 10.036759
14 -0.021012 5.112314 15.458334
14 5.112314 -0.021012 15.458334
14 5.111988 5.111988 10.485738
14 2.388175 2.388175 12.844717
14 3.614190 6.610771 17.389959
14 6.610771 3.614190 17.389959
14 7.835388 7.835388 12.845087
